Circuit: *****divider24*****

Ignoring BSIM parameter XL
Ignoring BSIM parameter XW
Ignoring BSIM parameter XL
Ignoring BSIM parameter XW
WARNING: Node 1:NC_01 is floating.
WARNING: Node 1:NC_02 is floating.
WARNING: Node 1:NC_03 is floating.
WARNING: Node 1:NC_04 is floating.
WARNING: Node 1:NC_05 is floating.
WARNING: Node 1:NC_06 is floating.
WARNING: Node 1:NC_07 is floating.
WARNING: Node 1:NC_08 is floating.

Warning: Pd = 0 is less than W.
Warning: Ps = 0 is less than W.
Warning: Pd = 0 is less than W.
Warning: Ps = 0 is less than W.
Warning: Pd = 0 is less than W.
Warning: Ps = 0 is less than W.
Warning: Pd = 0 is less than W.
Warning: Ps = 0 is less than W.
Early termination of direct N-R iteration.
Direct Newton iteration failed to find .op point.  (Use ".option noopiter" to skip.)
Starting Gmin stepping
Gmin = 10
Gmin = 1.07374
Gmin = 0.115292
Gmin = 0.0123794
Gmin = 0.00132923
Gmin = 0.000142725
Gmin = 1.5325e-005
Gmin = 1.6455e-006
Gmin = 1.76685e-007
Gmin = 1.89714e-008
Gmin = 2.03704e-009
Gmin = 2.18725e-010
Gmin = 2.34854e-011
Gmin = 2.52173e-012
Gmin = 2.70769e-013
Gmin = 0
Gmin stepping succeeded in finding the operating point.


Date: Sat Aug 08 14:03:59 2020
Total elapsed time: 4.660 seconds.

tnom = 27
temp = 27
method = modified trap
totiter = 27135
traniter = 26767
tranpoints = 8349
accept = 6038
rejected = 2311
matrix size = 95
fillins = 164
solver = Normal
Thread vector: 362.0/177.2[8] 66.1/29.7[8] 18.4/25.5[1] 2.4/99.0[1]  2592/500
Matrix Compiler1: 30.60 KB object code size  16.4/9.9/[4.2]
Matrix Compiler2: 15.96 KB object code size  8.5/10.9/[4.9]

